variable        infile index data.mol
variable        mytemp index 298

# set up simulation

# the following information is saved to restart files
units           real
atom_style      full
boundary        p p p
pair_style      lj/cut/coul/long 7
kspace_style    pppm 0.0001
pair_modify     tail yes
pair_modify     mix arithmetic
special_bonds   amber

bond_style      harmonic
angle_style     harmonic
dihedral_style  charmm
#improper_style  cvff

read_data       data.mol
  orthogonal box = (0 0 0) to (15.4361 15.394 15.438)
  reading atoms ...
  294 atoms
  reading velocities ...
  294 velocities
  scanning bonds ...
  scanning angles ...
  scanning dihedrals ...
  reading bonds ...
  226 bonds
  reading angles ...
  275 angles
  reading dihedrals ...
  270 dihedrals

#replicate       3 4 4

neighbor        2.0 bin
neigh_modify    delay 0 every 1 check yes page 1000000 one 20000
timestep        1.0

## end information that is saved to restart files

## create velocity profile
#minimize       1e-4 1e-6 10000 10000
velocity        all zero linear units box
dump            DUMP all custom 1000 mol.lammpstrj id type x y z mol
thermo_style    custom step vol temp press ke pe etotal enthalpy evdwl ecoul epair ebond eangle edihed eimp emol elong etail lx ly lz xy xz yz pxy pxz pyz pxx pyy pzz
thermo          1000
#
## thermostat and integrator

fix             NVT all nvt temp 298 298 100.0

restart         50000 restart.mol.1 restart.mol.2
run             10000000
PPPM initialization ...
  G vector (1/distance) = 0.383154
  grid = 12 12 12
  stencil order = 5
  estimated absolute RMS force accuracy = 0.0217689
  estimated relative force accuracy = 6.55565e-05
  3d grid and FFT values/proc = 3211 432
  update every 1 steps, delay 0 steps, check yes
Step Volume Temp Press KinEng PotEng TotEng Enthalpy E_vdwl E_coul E_pair E_bond E_angle E_dihed E_impro E_mol E_long E_tail Lx Ly Lz Xy Xz Yz Pxy Pxz Pyz Pxx Pyy Pzz
0    3668.4289     296.0583    829.72279    258.57061   -732.09212    -473.5215   -429.13111    1.4862502     4701.073   -1335.7285    83.149685    121.24722    399.23953            0    603.63643   -6038.2878   -33.444113      15.4361       15.394       15.438            0            0            0     2538.957    277.14971   -1291.9428    3309.9977    -105.5423     -715.287
Averages over the last 5001 of 10001 rows, steps 5000000 to 10000000:
Volume Temp Press KinEng PotEng TotEng Enthalpy E_vdwl E_coul E_pair E_bond E_angle E_dihed E_impro E_mol E_long E_tail Lx Ly Lz Xy Xz Yz Pxy Pxz Pyz Pxx Pyy Pzz
3668.43 298.18 30.0875 260.423 -730.156 -469.733 -468.123 4.59576 4698.87 -1339.27 89.5982 119.736 399.778 0 609.113 -6042.74 -33.4441 15.4361 15.394 15.438 0 0 0 -5.25583 -32.3059 -7.39245 -31.5383 44.8748 76.926
Loop time of 5338.75 on 4 procs for 10000000 steps with 294 atoms

write_restart   restart.mol
PPPM initialization ...
  G vector (1/distance) = 0.383154
  grid = 12 12 12
  stencil order = 5
  estimated absolute RMS force accuracy = 0.0217689
  estimated relative force accuracy = 6.55565e-05
  3d grid and FFT values/proc = 3211 432
write_data	data.*
PPPM initialization ...
  G vector (1/distance) = 0.383154
  grid = 12 12 12
  stencil order = 5
  estimated absolute RMS force accuracy = 0.0217689
  estimated relative force accuracy = 6.55565e-05
  3d grid and FFT values/proc = 3211 432
