variable        infile index data.mol
variable        mytemp index 373

# set up simulation

# the following information is saved to restart files
units           real
atom_style      full
boundary        p p p
pair_style      lj/cut/coul/long 7
kspace_style    pppm 0.0001
pair_modify     tail yes
pair_modify     mix arithmetic
special_bonds   amber

bond_style      harmonic
angle_style     harmonic
dihedral_style  charmm
#improper_style  cvff

read_data       data.mol
  orthogonal box = (0 0 0) to (15.7932 15.7932 15.7932)
  reading atoms ...
  294 atoms
  reading velocities ...
  294 velocities
  scanning bonds ...
  scanning angles ...
  scanning dihedrals ...
  reading bonds ...
  226 bonds
  reading angles ...
  275 angles
  reading dihedrals ...
  270 dihedrals

#replicate       3 4 4

neighbor        2.0 bin
neigh_modify    delay 0 every 1 check yes page 1000000 one 20000
timestep        1.0

## end information that is saved to restart files

## create velocity profile
#minimize       1e-4 1e-6 10000 10000
velocity        all zero linear units box
dump            DUMP all custom 1000 mol.lammpstrj id type x y z mol
thermo_style    custom step vol temp press ke pe etotal enthalpy evdwl ecoul epair ebond eangle edihed eimp emol elong etail lx ly lz xy xz yz pxy pxz pyz pxx pyy pzz
thermo          1000
#
## thermostat and integrator

fix             NVT all nvt temp 373 373 100.0

restart         50000 restart.mol.1 restart.mol.2
run             10000000
PPPM initialization ...
  G vector (1/distance) = 0.3803
  grid = 12 12 12
  stencil order = 5
  estimated absolute RMS force accuracy = 0.0233741
  estimated relative force accuracy = 7.03904e-05
  3d grid and FFT values/proc = 3211 432
  update every 1 steps, delay 0 steps, check yes
Step Volume Temp Press KinEng PotEng TotEng Enthalpy E_vdwl E_coul E_pair E_bond E_angle E_dihed E_impro E_mol E_long E_tail Lx Ly Lz Xy Xz Yz Pxy Pxz Pyz Pxx Pyy Pzz
0    3939.2215    374.91858   -3193.7436     327.4454    -595.8752    -268.4298   -451.90879   -2.6064964    4761.6145   -1235.4951    123.33742    120.01637    396.26615            0    639.61994   -5994.5031   -31.145075      15.7932      15.7932      15.7932            0            0            0    1398.1158      4492.75   -678.18431   -569.86277   -5009.6168   -4001.7512
Averages over the last 5001 of 10001 rows, steps 5000000 to 10000000:
Volume Temp Press KinEng PotEng TotEng Enthalpy E_vdwl E_coul E_pair E_bond E_angle E_dihed E_impro E_mol E_long E_tail Lx Ly Lz Xy Xz Yz Pxy Pxz Pyz Pxx Pyy Pzz
3939.22 373.332 -18.5503 326.06 -611.379 -285.32 -286.385 2.16813 4740.59 -1252.01 103.304 136.062 401.264 0 640.631 -5994.77 -31.1451 15.7932 15.7932 15.7932 0 0 0 -51.8244 -28.2772 55.0212 17.5302 -17.1262 -56.055
Loop time of 5257.95 on 4 procs for 10000000 steps with 294 atoms

write_restart   restart.mol
PPPM initialization ...
  G vector (1/distance) = 0.3803
  grid = 12 12 12
  stencil order = 5
  estimated absolute RMS force accuracy = 0.0233741
  estimated relative force accuracy = 7.03904e-05
  3d grid and FFT values/proc = 3211 432
write_data	data.*
PPPM initialization ...
  G vector (1/distance) = 0.3803
  grid = 12 12 12
  stencil order = 5
  estimated absolute RMS force accuracy = 0.0233741
  estimated relative force accuracy = 7.03904e-05
  3d grid and FFT values/proc = 3211 432
