variable        infile index data.mol
variable        mytemp index 298

# set up simulation

# the following information is saved to restart files
units           real
atom_style      full
boundary        p p p
pair_style      lj/cut/coul/long 7
kspace_style    pppm 0.0001
pair_modify     tail yes
pair_modify     mix arithmetic
special_bonds   amber

bond_style      harmonic
angle_style     harmonic
dihedral_style  charmm
#improper_style  cvff

read_data       data.mol
  orthogonal box = (0 0 0) to (16.5843 16.5843 16.5843)
  reading atoms ...
  341 atoms
  reading velocities ...
  341 velocities
  scanning bonds ...
  scanning angles ...
  scanning dihedrals ...
  reading bonds ...
  274 bonds
  reading angles ...
  389 angles
  reading dihedrals ...
  420 dihedrals

#replicate       3 4 4

neighbor        2.0 bin
neigh_modify    delay 0 every 1 check yes page 1000000 one 20000
timestep        1.0

## end information that is saved to restart files

## create velocity profile
#minimize       1e-4 1e-6 10000 10000
velocity        all zero linear units box
dump            DUMP all custom 1000 mol.lammpstrj id type x y z mol
thermo_style    custom step vol temp press ke pe etotal enthalpy evdwl ecoul epair ebond eangle edihed eimp emol elong etail lx ly lz xy xz yz pxy pxz pyz pxx pyy pzz
thermo          1000
#
## thermostat and integrator

fix             NVT all nvt temp 298 298 100.0

restart         50000 restart.mol.1 restart.mol.2
run             10000000
PPPM initialization ...
  G vector (1/distance) = 0.374366
  grid = 12 12 12
  stencil order = 5
  estimated absolute RMS force accuracy = 0.0274815
  estimated relative force accuracy = 8.27598e-05
  3d grid and FFT values/proc = 3211 432
  update every 1 steps, delay 0 steps, check yes
Step Volume Temp Press KinEng PotEng TotEng Enthalpy E_vdwl E_coul E_pair E_bond E_angle E_dihed E_impro E_mol E_long E_tail Lx Ly Lz Xy Xz Yz Pxy Pxz Pyz Pxx Pyy Pzz
0    4561.3294    298.22305   -1733.4798    302.24173   -777.39797   -475.15624   -590.47132   -121.63577     4932.562   -1644.3183    85.294671    155.13706    626.48857            0     866.9203   -6455.2445   -48.271156      16.5843      16.5843      16.5843            0            0            0   -1523.1068    534.22057   -2029.6251   -496.60027    -2021.714   -2682.1253
Averages over the last 5001 of 10001 rows, steps 5000000 to 10000000:
Volume Temp Press KinEng PotEng TotEng Enthalpy E_vdwl E_coul E_pair E_bond E_angle E_dihed E_impro E_mol E_long E_tail Lx Ly Lz Xy Xz Yz Pxy Pxz Pyz Pxx Pyy Pzz
4561.33 298.188 -70.6502 302.206 -757.062 -454.856 -459.556 -81.869 4895.58 -1640.49 99.4767 162.84 621.107 0 883.424 -6454.19 -48.2712 16.5843 16.5843 16.5843 0 0 0 -134.448 20.6748 -81.1821 -50.7915 -190.569 29.4105
Loop time of 5670.58 on 4 procs for 10000000 steps with 341 atoms

write_restart   restart.mol
PPPM initialization ...
  G vector (1/distance) = 0.374366
  grid = 12 12 12
  stencil order = 5
  estimated absolute RMS force accuracy = 0.0274815
  estimated relative force accuracy = 8.27598e-05
  3d grid and FFT values/proc = 3211 432
write_data	data.*
PPPM initialization ...
  G vector (1/distance) = 0.374366
  grid = 12 12 12
  stencil order = 5
  estimated absolute RMS force accuracy = 0.0274815
  estimated relative force accuracy = 8.27598e-05
  3d grid and FFT values/proc = 3211 432
