variable        infile index data.mol
variable        mytemp index 373

# set up simulation

# the following information is saved to restart files
units           real
atom_style      full
boundary        p p p
pair_style      lj/cut/coul/long 7
kspace_style    pppm 0.0001
pair_modify     tail yes
pair_modify     mix arithmetic
special_bonds   amber

bond_style      harmonic
angle_style     harmonic
dihedral_style  charmm
#improper_style  cvff

read_data       data.mol
  orthogonal box = (0 0 0) to (16.9073 16.9207 16.9298)
  reading atoms ...
  341 atoms
  reading velocities ...
  341 velocities
  scanning bonds ...
  scanning angles ...
  scanning dihedrals ...
  reading bonds ...
  274 bonds
  reading angles ...
  389 angles
  reading dihedrals ...
  420 dihedrals

#replicate       3 4 4

neighbor        2.0 bin
neigh_modify    delay 0 every 1 check yes page 1000000 one 20000
timestep        1.0

## end information that is saved to restart files

## create velocity profile
#minimize       1e-4 1e-6 10000 10000
velocity        all zero linear units box
dump            DUMP all custom 1000 mol.lammpstrj id type x y z mol
thermo_style    custom step vol temp press ke pe etotal enthalpy evdwl ecoul epair ebond eangle edihed eimp emol elong etail lx ly lz xy xz yz pxy pxz pyz pxx pyy pzz
thermo          1000
#
## thermostat and integrator

fix             NVT all nvt temp 373 373 100.0

restart         50000 restart.mol.1 restart.mol.2
run             10000000
PPPM initialization ...
  G vector (1/distance) = 0.371916
  grid = 12 12 12
  stencil order = 5
  estimated absolute RMS force accuracy = 0.0291692
  estimated relative force accuracy = 8.78421e-05
  3d grid and FFT values/proc = 3211 432
  update every 1 steps, delay 0 steps, check yes
Step Volume Temp Press KinEng PotEng TotEng Enthalpy E_vdwl E_coul E_pair E_bond E_angle E_dihed E_impro E_mol E_long E_tail Lx Ly Lz Xy Xz Yz Pxy Pxz Pyz Pxx Pyy Pzz
0    4843.3339    363.00458   -273.48362    367.89622   -641.99462   -274.09841   -293.41594   -90.467911    4924.1776   -1573.5242    125.20711    186.73173    619.59073            0    931.52957   -6407.2339   -45.460554      16.9073      16.9207      16.9298            0            0            0    2661.4779    -2107.143   -4205.5365    1562.5834    -2402.953    19.918777
Averages over the last 5001 of 10001 rows, steps 5000000 to 10000000:
Volume Temp Press KinEng PotEng TotEng Enthalpy E_vdwl E_coul E_pair E_bond E_angle E_dihed E_impro E_mol E_long E_tail Lx Ly Lz Xy Xz Yz Pxy Pxz Pyz Pxx Pyy Pzz
4843.33 373.018 4.32353 378.045 -627.368 -249.323 -249.018 -71.5958 4926.27 -1554.4 118.431 185.782 622.816 0 927.029 -6409.08 -45.4606 16.9073 16.9207 16.9298 0 0 0 -26.5757 -18.7486 15.7688 12.8876 5.02733 -4.94428
Loop time of 5999.66 on 4 procs for 10000000 steps with 341 atoms

write_restart   restart.mol
PPPM initialization ...
  G vector (1/distance) = 0.371916
  grid = 12 12 12
  stencil order = 5
  estimated absolute RMS force accuracy = 0.0291692
  estimated relative force accuracy = 8.78421e-05
  3d grid and FFT values/proc = 3211 432
write_data	data.*
PPPM initialization ...
  G vector (1/distance) = 0.371916
  grid = 12 12 12
  stencil order = 5
  estimated absolute RMS force accuracy = 0.0291692
  estimated relative force accuracy = 8.78421e-05
  3d grid and FFT values/proc = 3211 432
