variable        infile index data.mol
variable        mytemp index 298

# set up simulation

# the following information is saved to restart files
units           real
atom_style      full
boundary        p p p
pair_style      lj/cut/coul/long 7
kspace_style    pppm 0.0001
pair_modify     tail yes
pair_modify     mix arithmetic
special_bonds   amber

bond_style      harmonic
angle_style     harmonic
dihedral_style  charmm
#improper_style  cvff

read_data       data.mol
  orthogonal box = (0 0 0) to (15.4361 15.394 15.438)
  reading atoms ...
  294 atoms
  reading velocities ...
  294 velocities
  scanning bonds ...
  scanning angles ...
  scanning dihedrals ...
  reading bonds ...
  226 bonds
  reading angles ...
  275 angles
  reading dihedrals ...
  270 dihedrals

#replicate       3 4 4

neighbor        2.0 bin
neigh_modify    delay 0 every 1 check yes page 1000000 one 20000
timestep        1.0

## end information that is saved to restart files

## create velocity profile
#minimize       1e-4 1e-6 10000 10000
velocity        all zero linear units box
dump            DUMP all custom 1000 mol.lammpstrj id type x y z mol
thermo_style    custom step vol temp press ke pe etotal enthalpy evdwl ecoul epair ebond eangle edihed eimp emol elong etail lx ly lz xy xz yz pxy pxz pyz pxx pyy pzz
thermo          1000
#
## thermostat and integrator

fix             NVT all nvt temp 298 298 100.0

restart         50000 restart.mol.1 restart.mol.2
run             10000000
PPPM initialization ...
  G vector (1/distance) = 0.383154
  grid = 12 12 12
  stencil order = 5
  estimated absolute RMS force accuracy = 0.0217689
  estimated relative force accuracy = 6.55565e-05
  3d grid and FFT values/proc = 3211 432
  update every 1 steps, delay 0 steps, check yes
Step Volume Temp Press KinEng PotEng TotEng Enthalpy E_vdwl E_coul E_pair E_bond E_angle E_dihed E_impro E_mol E_long E_tail Lx Ly Lz Xy Xz Yz Pxy Pxz Pyz Pxx Pyy Pzz
0    3668.4289    293.60134     3507.183    256.42476   -702.58999   -446.16523   -258.52999    18.240057    4702.5151   -1319.5934     95.88792    120.56687    400.54861            0    617.00339   -6040.3485   -33.444113      15.4361       15.394       15.438            0            0            0   -2706.5119    2682.6363   -3575.4995    2365.3784    4758.7739    3397.3966
Averages over the last 5001 of 10001 rows, steps 5000000 to 10000000:
Volume Temp Press KinEng PotEng TotEng Enthalpy E_vdwl E_coul E_pair E_bond E_angle E_dihed E_impro E_mol E_long E_tail Lx Ly Lz Xy Xz Yz Pxy Pxz Pyz Pxx Pyy Pzz
3668.43 298.133 118.24 260.383 -728.819 -468.436 -462.111 4.58873 4700.88 -1336.9 88.5897 120.001 399.494 0 608.085 -6042.37 -33.4441 15.4361 15.394 15.438 0 0 0 -8.30401 80.499 28.0572 90.9924 157.981 105.747
Loop time of 5364.9 on 4 procs for 10000000 steps with 294 atoms

write_restart   restart.mol
PPPM initialization ...
  G vector (1/distance) = 0.383154
  grid = 12 12 12
  stencil order = 5
  estimated absolute RMS force accuracy = 0.0217689
  estimated relative force accuracy = 6.55565e-05
  3d grid and FFT values/proc = 3211 432
write_data	data.*
PPPM initialization ...
  G vector (1/distance) = 0.383154
  grid = 12 12 12
  stencil order = 5
  estimated absolute RMS force accuracy = 0.0217689
  estimated relative force accuracy = 6.55565e-05
  3d grid and FFT values/proc = 3211 432
