variable        infile index data.mol
variable        mytemp index 373

# set up simulation

# the following information is saved to restart files
units           real
atom_style      full
boundary        p p p
pair_style      lj/cut/coul/long 7
kspace_style    pppm 0.0001
pair_modify     tail yes
pair_modify     mix arithmetic
special_bonds   amber

bond_style      harmonic
angle_style     harmonic
dihedral_style  charmm
#improper_style  cvff

read_data       data.mol
  orthogonal box = (0 0 0) to (15.7932 15.7932 15.7932)
  reading atoms ...
  294 atoms
  reading velocities ...
  294 velocities
  scanning bonds ...
  scanning angles ...
  scanning dihedrals ...
  reading bonds ...
  226 bonds
  reading angles ...
  275 angles
  reading dihedrals ...
  270 dihedrals

#replicate       3 4 4

neighbor        2.0 bin
neigh_modify    delay 0 every 1 check yes page 1000000 one 20000
timestep        1.0

## end information that is saved to restart files

## create velocity profile
#minimize       1e-4 1e-6 10000 10000
velocity        all zero linear units box
dump            DUMP all custom 1000 mol.lammpstrj id type x y z mol
thermo_style    custom step vol temp press ke pe etotal enthalpy evdwl ecoul epair ebond eangle edihed eimp emol elong etail lx ly lz xy xz yz pxy pxz pyz pxx pyy pzz
thermo          1000
#
## thermostat and integrator

fix             NVT all nvt temp 373 373 100.0

restart         50000 restart.mol.1 restart.mol.2
run             10000000
PPPM initialization ...
  G vector (1/distance) = 0.3803
  grid = 12 12 12
  stencil order = 5
  estimated absolute RMS force accuracy = 0.0233741
  estimated relative force accuracy = 7.03904e-05
  3d grid and FFT values/proc = 3211 432
  update every 1 steps, delay 0 steps, check yes
Step Volume Temp Press KinEng PotEng TotEng Enthalpy E_vdwl E_coul E_pair E_bond E_angle E_dihed E_impro E_mol E_long E_tail Lx Ly Lz Xy Xz Yz Pxy Pxz Pyz Pxx Pyy Pzz
0    3939.2215    370.56718   -961.50344    323.64498    -629.8354   -306.19042   -361.42832   -14.243038     4771.767   -1233.6913     88.25109    116.60655    398.99824            0    603.85588   -5991.2153   -31.145075      15.7932      15.7932      15.7932            0            0            0    3631.0274     5519.592     -1961.84   -1352.0018    150.65515   -1683.1637
Averages over the last 5001 of 10001 rows, steps 5000000 to 10000000:
Volume Temp Press KinEng PotEng TotEng Enthalpy E_vdwl E_coul E_pair E_bond E_angle E_dihed E_impro E_mol E_long E_tail Lx Ly Lz Xy Xz Yz Pxy Pxz Pyz Pxx Pyy Pzz
3939.22 373.092 -66.9262 325.85 -612.258 -286.408 -290.253 2.36277 4739.25 -1253.22 103.914 135.897 401.155 0 640.966 -5994.84 -31.1451 15.7932 15.7932 15.7932 0 0 0 -29.1017 -47.8704 -9.34449 -19.3185 -87.4537 -94.0065
Loop time of 5252.39 on 4 procs for 10000000 steps with 294 atoms

write_restart   restart.mol
PPPM initialization ...
  G vector (1/distance) = 0.3803
  grid = 12 12 12
  stencil order = 5
  estimated absolute RMS force accuracy = 0.0233741
  estimated relative force accuracy = 7.03904e-05
  3d grid and FFT values/proc = 3211 432
write_data	data.*
PPPM initialization ...
  G vector (1/distance) = 0.3803
  grid = 12 12 12
  stencil order = 5
  estimated absolute RMS force accuracy = 0.0233741
  estimated relative force accuracy = 7.03904e-05
  3d grid and FFT values/proc = 3211 432
